# Name: HET
# Created by ModelServer 0.9.9

# model_server_result.job_id: 7YuyT_35b9hp0EwzFi9_qw
# model_server_result.datetime_utc: 2022-12-06 12:16:52
# model_server_result.server_version: 0.9.9
# model_server_result.query_name: ligand
# model_server_result.source_id: pdb-bcif
# model_server_result.entry_id: 2bdj

# model_server_params.name: atom_site
# model_server_params.value: {"label_asym_id":"B","auth_seq_id":800}

# model_server_stats.io_time_ms: 54
# model_server_stats.parse_time_ms: 29
# model_server_stats.create_model_time_ms: 43
# model_server_stats.query_time_ms: 208
# model_server_stats.encode_time_ms: 0
# model_server_stats.element_count: 34

@<TRIPOS>MOLECULE
HET
34 38 1
****
****

@<TRIPOS>ATOM
1 N9A 17.069 2.140 26.105 N.ar 1 HET 0.000
2 C8A 18.197 1.435 26.248 C.ar 1 HET 0.000
3 N7A 19.117 2.255 25.763 N.ar 1 HET 0.000
4 C5A 18.650 3.530 25.277 C.ar 1 HET 0.000
5 C6A 19.121 4.711 24.717 C.ar 1 HET 0.000
6 N6A 20.428 4.838 24.516 N.pl3 1 HET 0.000
7 N1A 18.223 5.664 24.423 N.ar 1 HET 0.000
8 C2A 16.894 5.603 24.616 C.ar 1 HET 0.000
9 N3A 16.371 4.483 25.172 N.ar 1 HET 0.000
10 C4A 17.160 3.438 25.518 C.ar 1 HET 0.000
11 C1A 15.722 1.718 26.503 C.3 1 HET 0.000
12 CT0 15.072 2.608 27.462 C.3 1 HET 0.000
13 CT1 13.677 2.052 27.816 C.ar 1 HET 0.000
14 CT2 13.400 1.713 29.192 C.ar 1 HET 0.000
15 CT3 12.103 1.183 29.546 C.ar 1 HET 0.000
16 CT4 11.100 0.998 28.523 C.ar 1 HET 0.000
17 CT5 11.366 1.333 27.151 C.ar 1 HET 0.000
18 CT6 12.651 1.859 26.793 C.ar 1 HET 0.000
19 OH 10.409 1.150 26.208 O.3 1 HET 0.000
20 CR1 21.146 5.759 24.073 C.ar 1 HET 0.000
21 CR2 22.551 5.741 23.912 C.ar 1 HET 0.000
22 CR3 23.215 6.862 23.424 C.ar 1 HET 0.000
23 CR4 22.478 8.023 23.091 C.ar 1 HET 0.000
24 CR5 21.078 8.072 23.236 C.ar 1 HET 0.000
25 CR6 20.409 6.945 23.727 C.ar 1 HET 0.000
26 PA 23.333 9.487 22.477 P.3 1 HET 0.000
27 OA1 24.363 9.791 23.595 O.2 1 HET 0.000
28 CA2 23.943 8.939 21.158 C.3 1 HET 0.000
29 CA3 22.383 10.610 22.184 C.3 1 HET 0.000
30 CS1 15.951 6.686 24.255 C.3 1 HET 0.000
31 CS2 16.252 7.162 22.793 C.3 1 HET 0.000
32 CS3 16.299 8.698 22.783 C.3 1 HET 0.000
33 CS4 16.022 9.162 24.213 C.3 1 HET 0.000
34 CS5 16.069 7.931 25.154 C.3 1 HET 0.000
@<TRIPOS>BOND
1 1 2 ar
2 1 10 ar
3 1 11 1
4 2 3 ar
5 3 4 ar
6 4 5 ar
7 4 10 ar
8 5 6 1
9 5 7 ar
10 6 20 1
11 7 8 ar
12 8 9 ar
13 8 30 1
14 9 10 ar
15 11 12 1
16 12 13 1
17 13 14 ar
18 13 18 ar
19 14 15 ar
20 15 16 ar
21 16 17 ar
22 17 18 ar
23 17 19 1
24 20 21 ar
25 20 25 ar
26 21 22 ar
27 22 23 ar
28 23 24 ar
29 23 26 1
30 24 25 ar
31 26 27 2
32 26 28 1
33 26 29 1
34 30 31 1
35 30 34 1
36 31 32 1
37 32 33 1
38 33 34 1
@<TRIPOS>SUBSTRUCTURE
1 HET 1
