# Name: VDX
# Created by ModelServer 0.9.9

# model_server_result.job_id: gTiVahaLLQY9jBkIu-XYhg
# model_server_result.datetime_utc: 2022-12-18 15:01:52
# model_server_result.server_version: 0.9.9
# model_server_result.query_name: ligand
# model_server_result.source_id: pdb-bcif
# model_server_result.entry_id: 1db1

# model_server_params.name: atom_site
# model_server_params.value: {"label_asym_id":"B","auth_seq_id":428}

# model_server_stats.io_time_ms: 3
# model_server_stats.parse_time_ms: 44
# model_server_stats.create_model_time_ms: 13
# model_server_stats.query_time_ms: 250
# model_server_stats.encode_time_ms: 0
# model_server_stats.element_count: 30

@<TRIPOS>MOLECULE
VDX
30 32 1
****
****

@<TRIPOS>ATOM
1 O2 17.029 18.071 34.819 O.3 1 VDX 0.000
2 O3 4.489 26.946 35.054 O.3 1 VDX 0.000
3 C1 14.139 17.953 35.755 C.3 1 VDX 0.000
4 C2 14.879 16.893 34.895 C.3 1 VDX 0.000
5 C3 15.992 17.534 33.962 C.3 1 VDX 0.000
6 C4 15.368 18.672 33.049 C.3 1 VDX 0.000
7 C5 14.622 19.724 33.864 C.2 1 VDX 0.000
8 C6 14.797 21.120 33.792 C.2 1 VDX 0.000
9 C7 14.174 22.286 34.514 C.2 1 VDX 0.000
10 C8 13.966 23.488 34.042 C.2 1 VDX 0.000
11 C9 14.354 23.927 32.544 C.3 1 VDX 0.000
12 C10 13.602 19.075 34.828 C.2 1 VDX 0.000
13 C11 13.088 24.490 31.671 C.3 1 VDX 0.000
14 C12 12.147 25.443 32.564 C.3 1 VDX 0.000
15 C13 11.753 24.897 34.070 C.3 1 VDX 0.000
16 C14 13.148 24.538 34.777 C.3 1 VDX 0.000
17 C15 12.661 24.266 36.350 C.3 1 VDX 0.000
18 C16 11.429 25.231 36.497 C.3 1 VDX 0.000
19 C17 11.276 25.934 35.106 C.3 1 VDX 0.000
20 C18 10.769 23.570 33.779 C.3 1 VDX 0.000
21 C19 12.291 19.455 34.852 C.2 1 VDX 0.000
22 C20 9.849 26.546 34.726 C.3 1 VDX 0.000
23 C21 9.804 27.956 35.482 C.3 1 VDX 0.000
24 C22 8.575 25.824 35.268 C.3 1 VDX 0.000
25 C23 7.331 26.060 34.405 C.3 1 VDX 0.000
26 C24 6.152 25.266 34.672 C.3 1 VDX 0.000
27 C25 4.775 25.776 34.336 C.3 1 VDX 0.000
28 C26 4.701 26.010 32.842 C.3 1 VDX 0.000
29 C27 3.668 24.730 34.723 C.3 1 VDX 0.000
30 O1 13.119 17.359 36.620 O.3 1 VDX 0.000
@<TRIPOS>BOND
1 1 5 1
2 2 27 1
3 3 4 1
4 3 12 1
5 3 30 1
6 4 5 1
7 5 6 1
8 6 7 1
9 7 8 2
10 7 12 1
11 8 9 1
12 9 10 2
13 10 11 1
14 10 16 1
15 11 13 1
16 12 21 2
17 13 14 1
18 14 15 1
19 15 16 1
20 15 19 1
21 15 20 1
22 16 17 1
23 17 18 1
24 18 19 1
25 19 22 1
26 22 23 1
27 22 24 1
28 24 25 1
29 25 26 1
30 26 27 1
31 27 28 1
32 27 29 1
@<TRIPOS>SUBSTRUCTURE
1 VDX 1
